/*--------------------------------*- C++ -*----------------------------------*\
  =========                 |
  \\      /  F ield         | OpenFOAM: The Open Source CFD Toolbox
   \\    /   O peration     | Website:  https://openfoam.org
    \\  /    A nd           | Version:  12
     \\/     M anipulation  |
\*---------------------------------------------------------------------------*/
FoamFile
{
    format      binary;
    class       polyBoundaryMesh;
    location    "constant/polyMesh";
    object      boundary;
}
// * * * * * * * * * * * * * * * * * * * * * * * * * * * * * * * * * * * * * //

9
(
    FAIRING
    {
        type            wall;
        inGroups        List<word> 1(wall);
        nFaces          1267;
        startFace       871012;
    }
    FUSELAGE
    {
        type            wall;
        inGroups        List<word> 1(wall);
        nFaces          3243;
        startFace       872279;
    }
    WING
    {
        type            wall;
        inGroups        List<word> 1(wall);
        nFaces          15313;
        startFace       875522;
    }
    INLET
    {
        type            patch;
        nFaces          272;
        startFace       890835;
    }
    OUTLET
    {
        type            patch;
        nFaces          272;
        startFace       891107;
    }
    SYMM
    {
        type            wall;
        inGroups        List<word> 1(wall);
        nFaces          6280;
        startFace       891379;
    }
    FARFIELD
    {
        type            wall;
        inGroups        List<word> 1(wall);
        nFaces          3136;
        startFace       897659;
    }
    NOSE
    {
        type            wall;
        inGroups        List<word> 1(wall);
        nFaces          76;
        startFace       900795;
    }
    COCKPIT
    {
        type            wall;
        inGroups        List<word> 1(wall);
        nFaces          1261;
        startFace       900871;
    }
)

// ************************************************************************* //
